/*---------------------------------------------------------------------------*\
| =========                 |                                                 |
| \\      /  F ield         | OpenFOAM: The Open Source CFD Toolbox           |
|  \\    /   O peration     | Version:  2412                                  |
|   \\  /    A nd           | Website:  www.openfoam.com                      |
|    \\/     M anipulation  |                                                 |
\*---------------------------------------------------------------------------*/
Build  : _2c4871ff-20250317 OPENFOAM=2412 version=2412
Arch   : "LSB;label=32;scalar=64"
Exec   : pimpleFoam
Date   : Jun 17 2025
Time   : 15:56:58
Host   : cfdm-MS-7A15
PID    : 993187
I/O    : uncollated
Case   : /home/cfdm/OpenFOAM/cfdm-v2412/run/tutorials/incompressible/pimpleFoam/RAS/wingMotion/wingMotion2D_pimpleFoam
nProcs : 1
trapFpe: Floating point exception trapping enabled (FOAM_SIGFPE).
fileModificationChecking : Monitoring run-time modified files using timeStampMaster (fileModificationSkew 5, maxFileModificationPolls 20)
allowSystemOperations : Allowing user-supplied system call operations

// * * * * * * * * * * * * * * * * * * * * * * * * * * * * * * * * * * * * * //
Create time

Create mesh for time = 0

Selecting dynamicFvMesh dynamicMotionSolverFvMesh
Selecting motion solver: sixDoFRigidBodyMotion
Applying motion to entire mesh
Selecting sixDoFSolver CrankNicolson

PIMPLE: max iterations = 2
    field p	: relTol 0.05, tolerance 1e-06
    field U	: relTol 0.1, tolerance 1e-05
    field "(k|omega)"	: relTol 0.1, tolerance 1e-05

Reading field p

Reading field U

Reading/calculating face flux field phi

Selecting incompressible transport model Newtonian
Selecting turbulence model type RAS
Selecting RAS turbulence model kOmegaSST
Selecting patchDistMethod meshWave
RAS
{
    RASModel        kOmegaSST;
    turbulence      on;
    printCoeffs     on;
    alphaK1         0.85;
    alphaK2         1;
    alphaOmega1     0.5;
    alphaOmega2     0.856;
    gamma1          0.5555555556;
    gamma2          0.44;
    beta1           0.075;
    beta2           0.0828;
    betaStar        0.09;
    a1              0.31;
    b1              1;
    c1              10;
    F3              false;
    decayControl    false;
    kInf            0;
    omegaInf        0;
}

No MRF models present

No finite volume options present
Constructing face velocity Uf

Courant Number mean: 0.02293494913 max: 0.03610694976
forces forces:
    rho: rhoInf
    Freestream density (rhoInf) set to 1.225
    Not including porosity effects

Courant Number mean: 0.02293494913 max: 0.03610694976

Starting time loop

Courant Number mean: 0.02293494913 max: 0.03610694976
deltaT = 0.001204819277
Time = 0.00120482

PIMPLE: iteration 1
forces forces:
    rho: rho
    Not including porosity effects

